CemigDFeeders/0PermRes/Condutores.dss
!LINE CONSTANTS
!Frequency = 60 Hz, Earth resistivity = 4557 ohm-m
!Earth Model = Deri

new linecode.tieSwitch r1=0.001,r0=0.001,x1=0,x0=0,c1=0,c0=0,units=km,rho=2000,normamps=400
new linecode.tieSwitch1 nphases=1,rmatrix=[0.001],xmatrix=[0],units=km,rho=2000,normamps=400

new linecode.CAB r1=0.001,x1=0.001,units=km,normamps=1000
new linecode.CABBT r1=0.001,x1=0.001,units=km,normamps=1000
new linecode.CABMT r1=0.001,x1=0.001,units=km,normamps=1000
new linecode.CABO_FICTICI r1=0.001,x1=0.001,units=km,normamps=100

! Definicoes por meio do Geometry
! MT
New Wiredata.CAB102  GMR=0.00213 DIAM=0.588 RAC=1.550 NormAmps=230.0000 Runits=km radunits=cm gmrunits=m ! 4AWG
New Wiredata.CAB103  GMR=0.00269 DIAM=0.741 RAC=0.9743 NormAmps=185.0000 Runits=km radunits=cm gmrunits=m ! 2AWG
New Wiredata.CAB104  GMR=0.00339 DIAM=0.936 RAC=0.6130 NormAmps=185.0000 Runits=km radunits=cm gmrunits=m ! 
New Wiredata.CAB107  GMR=0.00481 DIAM=1.326 RAC=0.3060 NormAmps=185.0000 Runits=km radunits=cm gmrunits=m ! 
New Wiredata.CAB108  GMR=0.00778 DIAM=1.883 RAC=0.1950 NormAmps=185.0000 Runits=km radunits=cm gmrunits=m ! 
New Wiredata.CAB202  GMR=0.00244 DIAM=0.635 RAC=1.5378 NormAmps=230.0000 Runits=km radunits=cm gmrunits=m ! 
New Wiredata.CAB203  GMR=0.00308 DIAM=0.802 RAC=0.9662 NormAmps=230.0000 Runits=km radunits=cm gmrunits=m ! 
New Wiredata.CAB204  GMR=0.00388 DIAM=1.011 RAC=0.6130 NormAmps=230.0000 Runits=km radunits=cm gmrunits=m ! 
New Wiredata.CAB207  GMR=0.00550 DIAM=1.431 RAC=0.3060 NormAmps=230.0000 Runits=km radunits=cm gmrunits=m ! 
New Wiredata.CAB208  GMR=0.00778 DIAM=1.883 RAC=0.1950 NormAmps=230.0000 Runits=km radunits=cm gmrunits=m ! 

! MT Isolada 
New Wiredata.CABA06  GMR=0.00339 DIAM=1.420 RAC=0.7314 NormAmps=230.0000 Runits=km radunits=cm gmrunits=m ! 
New Wiredata.CABA08  GMR=0.00778 DIAM=2.030 RAC=0.2347 NormAmps=230.0000 Runits=km radunits=cm gmrunits=m ! 
 
New Linegeometry.CAB102 nconds=4,nphases=3,cond=1,Wire=CAB102,x=0.3,h=8.4,units=m,cond=2,Wire=CAB102,x=1,h=8.4,units=m,cond=3,Wire=CAB102,x=1.7,h=8.4,units=m,cond=4,Wire=CAB102,x=0.2 h=7.2,units=m,Reduce=Y
New Linegeometry.CAB103 nconds=4,nphases=3,cond=1,Wire=CAB103,x=0.3,h=8.4,units=m,cond=2,Wire=CAB103,x=1,h=8.4,units=m,cond=3,Wire=CAB103,x=1.7,h=8.4,units=m,cond=4,Wire=CAB102,x=0.2 h=7.2,units=m,Reduce=Y
New Linegeometry.CAB104 nconds=4,nphases=3,cond=1,Wire=CAB104,x=0.3,h=8.4,units=m,cond=2,Wire=CAB104,x=1,h=8.4,units=m,cond=3,Wire=CAB104,x=1.7,h=8.4,units=m,cond=4,Wire=CAB103,x=0.2 h=7.2,units=m,Reduce=Y
New Linegeometry.CAB107 nconds=4,nphases=3,cond=1,Wire=CAB107,x=0.3,h=8.4,units=m,cond=2,Wire=CAB107,x=1,h=8.4,units=m,cond=3,Wire=CAB107,x=1.7,h=8.4,units=m,cond=4,Wire=CAB104,x=0.2 h=7.2,units=m,Reduce=Y
New Linegeometry.CAB108 nconds=4,nphases=3,cond=1,Wire=CAB108,x=0.3,h=8.4,units=m,cond=2,Wire=CAB108,x=1,h=8.4,units=m,cond=3,Wire=CAB108,x=1.7,h=8.4,units=m,cond=4,Wire=CAB104,x=0.2 h=7.2,units=m,Reduce=Y
New Linegeometry.CAB202 nconds=4,nphases=3,cond=1,Wire=CAB202,x=-1.1,h=8.4,units=m,cond=2,Wire=CAB202,x=0.4,h=8.4,units=m,cond=3,Wire=CAB202,x=1.1,h=8.4,units=m,cond=4,Wire=CAB202,x=0.2 h=7.2,units=m,Reduce=Y
New Linegeometry.CAB203 nconds=4,nphases=3,cond=1,Wire=CAB203,x=-1.1,h=8.4,units=m,cond=2,Wire=CAB203,x=0.4,h=8.4,units=m,cond=3,Wire=CAB203,x=1.1,h=8.4,units=m,cond=4,Wire=CAB202,x=0.2 h=7.2,units=m,Reduce=Y
New Linegeometry.CAB204 nconds=4,nphases=3,cond=1,Wire=CAB204,x=-1.1,h=8.4,units=m,cond=2,Wire=CAB204,x=0.4,h=8.4,units=m,cond=3,Wire=CAB204,x=1.1,h=8.4,units=m,cond=4,Wire=CAB203,x=0.2 h=7.2,units=m,Reduce=Y
New Linegeometry.CAB207 nconds=4,nphases=3,cond=1,Wire=CAB207,x=-1.1,h=8.4,units=m,cond=2,Wire=CAB207,x=0.4,h=8.4,units=m,cond=3,Wire=CAB207,x=1.1,h=8.4,units=m,cond=4,Wire=CAB204,x=0.2 h=7.2,units=m,Reduce=Y
New Linegeometry.CAB208 nconds=4,nphases=3,cond=1,Wire=CAB208,x=-1.1,h=8.4,units=m,cond=2,Wire=CAB208,x=0.4,h=8.4,units=m,cond=3,Wire=CAB208,x=1.1,h=8.4,units=m,cond=4,Wire=CAB204,x=0.2 h=7.2,units=m,Reduce=Y
New Linegeometry.CABA06 nconds=4,nphases=3,cond=1,Wire=CABA06,x=0.275,h=8.8,units=m,cond=2,Wire=CABA06,x=0.35,h=8.63,units=m,cond=3,Wire=CABA06,x=0.425,h=8.8,units=m,cond=4,Wire=CAB103,x=0.2 h=6.95,units=m,Reduce=Y
New Linegeometry.CABA08 nconds=4,nphases=3,cond=1,Wire=CABA08,x=0.275,h=8.8,units=m,cond=2,Wire=CABA08,x=0.35,h=8.63,units=m,cond=3,Wire=CABA08,x=0.425,h=8.8,units=m,cond=4,Wire=CAB104,x=0.2 h=6.95,units=m,Reduce=Y

! BT
New Wiredata.CABBT106 GMR=0.00213 DIAM=0.588 RAC=1.5510 NormAmps=185.0000 Runits=km radunits=cm gmrunits=m ! 
New Wiredata.CABBT107 GMR=0.00269 DIAM=0.741 RAC=0.9750  NormAmps=185.0000 Runits=km radunits=cm gmrunits=m ! 
New Wiredata.CABBT108 GMR=0.00339 DIAM=0.936 RAC=0.6130 NormAmps=185.0000 Runits=km radunits=cm gmrunits=m ! 
New Wiredata.CABBT35mm  GMR=0.00270 DIAM=0.700 RAC=0.8680 NormAmps=185.0000 Runits=km radunits=cm gmrunits=m ! 
New Wiredata.CABBT70mm  GMR=0.00377 DIAM=0.980 RAC=0.4430 NormAmps=185.0000 Runits=km radunits=cm gmrunits=m ! 
New Wiredata.CABBT120mm  GMR=0.00497 DIAM=1.290 RAC=0.2530 NormAmps=185.0000 Runits=km radunits=cm gmrunits=m !
! novos 
New Wiredata.CABBT809  GMR=0.00270 DIAM=0.700 RAC=0.8680 NormAmps=185.0000 Runits=km radunits=cm gmrunits=m ! 
New Wiredata.CABBT810  GMR=0.00270 DIAM=0.700 RAC=0.8680 NormAmps=185.0000 Runits=km radunits=cm gmrunits=m ! 
New Wiredata.CABBT803  GMR=0.00377 DIAM=0.980 RAC=0.4430 NormAmps=185.0000 Runits=km radunits=cm gmrunits=m ! 
New Wiredata.CABBT805  GMR=0.00497 DIAM=1.290 RAC=0.2530 NormAmps=185.0000 Runits=km radunits=cm gmrunits=m !

! BT convencional 
New Linegeometry.CABBT106 nconds=4,nphases=3,cond=1,Wire=CABBT106,x=0.2,h=7,units=m,cond=2,Wire=CABBT106,x=0.2,h=6.8,units=m,cond=3,Wire=CABBT106,x=0.2,h=6.6,units=m,cond=4,Wire=CABBT106,x=0.2 h=7.2,units=m,Reduce=Y
New Linegeometry.CABBT107 nconds=4,nphases=3,cond=1,Wire=CABBT107,x=0.2,h=7,units=m,cond=2,Wire=CABBT107,x=0.2,h=6.8,units=m,cond=3,Wire=CABBT107,x=0.2,h=6.6,units=m,cond=4,Wire=CABBT106,x=0.2 h=7.2,units=m,Reduce=Y
New Linegeometry.CABBT108 nconds=4,nphases=3,cond=1,Wire=CABBT108,x=0.2,h=7,units=m,cond=2,Wire=CABBT108,x=0.2,h=6.8,units=m,cond=3,Wire=CABBT108,x=0.2,h=6.6,units=m,cond=4,Wire=CABBT107,x=0.2 h=7.2,units=m,Reduce=Y

! BT multiplexada
New Linegeometry.CABBT803 nconds=4,nphases=3,cond=1,Wire=CABBT803,x=-0.012,h=7.1,units=m,cond=2,Wire=CABBT803,x=0,h=7.08,units=m,cond=3,Wire=CABBT803,x=0.012,h=7.1,units=m,cond=4,Wire=CABBT803,x=0 h=7.1,units=m,Reduce=Y
New Linegeometry.CABBT805 nconds=4,nphases=3,cond=1,Wire=CABBT805,x=-0.012,h=7.1,units=m,cond=2,Wire=CABBT805,x=0,h=7.08,units=m,cond=3,Wire=CABBT805,x=0.012,h=7.1,units=m,cond=4,Wire=CABBT70MM,x=0 h=7.1,units=m,Reduce=Y
New Linegeometry.CABBT809 nconds=4,nphases=3,cond=1,Wire=CABBT809,x=-0.012,h=7.1,units=m,cond=2,Wire=CABBT809,x=0,h=7.08,units=m,cond=3,Wire=CABBT809,x=0.012,h=7.1,units=m,cond=4,Wire=CABBT809,x=0 h=7.1,units=m,Reduce=Y
New Linegeometry.CABBT810 nconds=4,nphases=3,cond=1,Wire=CABBT810,x=-0.012,h=7.1,units=m,cond=2,Wire=CABBT810,x=0,h=7.08,units=m,cond=3,Wire=CABBT810,x=0.012,h=7.1,units=m,cond=4,Wire=CABBT70MM,x=0 h=7.1,units=m,Reduce=Y
New Linegeometry.CABBT801 nconds=3,nphases=2,cond=1,Wire=CABBT35mm,x=0,h=7.209,units=m,cond=2,Wire=CABBT35mm,x=-0.009,h=7.2,units=m,cond=3,Wire=CABBT35mm,x=0.009,h=7.2,units=m,Reduce=Y
New Linegeometry.CABBT807 nconds=3,nphases=2,cond=1,Wire=CABBT70mm,x=0,h=7.209,units=m,cond=2,Wire=CABBT70mm,x=-0.009,h=7.2,units=m,cond=3,Wire=CABBT70mm,x=0.009,h=7.2,units=m,Reduce=Y
New Linegeometry.CABBT808 nconds=3,nphases=2,cond=1,Wire=CABBT35mm,x=0,h=7.209,units=m,cond=2,Wire=CABBT35mm,x=-0.009,h=7.2,units=m,cond=3,Wire=CABBT70mm,x=0.009,h=7.2,units=m,Reduce=Y

! Linhas 1km
! New line.CAB102 bus1=b1.1.2.3.0,bus2=b2.1.2.3.0,phases=3,BaseFreq=60,Rho=2840,Geometry=CAB102,EarthModel=Carson,Length=1,Units=km
! New line.CAB103 bus1=b1.1.2.3.0,bus2=b2.1.2.3.0,phases=3,BaseFreq=60,Rho=2840,Geometry=CAB103,EarthModel=Carson,Length=1,Units=km
! New line.CAB104 bus1=b1.1.2.3.0,bus2=b2.1.2.3.0,phases=3,BaseFreq=60,Rho=2840,Geometry=CAB104,EarthModel=Carson,Length=1,Units=km
! New line.CAB107 bus1=b1.1.2.3.0,bus2=b2.1.2.3.0,phases=3,BaseFreq=60,Rho=2840,Geometry=CAB107,EarthModel=Carson,Length=1,Units=km
! New line.CAB108 bus1=b1.1.2.3.0,bus2=b2.1.2.3.0,phases=3,BaseFreq=60,Rho=2840,Geometry=CAB108,EarthModel=Carson,Length=1,Units=km
! New line.CAB202 bus1=b1.1.2.3.0,bus2=b2.1.2.3.0,phases=3,BaseFreq=60,Rho=2840,Geometry=CAB202,EarthModel=Carson,Length=1,Units=km
! New line.CAB203 bus1=b1.1.2.3.0,bus2=b2.1.2.3.0,phases=3,BaseFreq=60,Rho=2840,Geometry=CAB203,EarthModel=Carson,Length=1,Units=km
! New line.CAB204 bus1=b1.1.2.3.0,bus2=b2.1.2.3.0,phases=3,BaseFreq=60,Rho=2840,Geometry=CAB204,EarthModel=Carson,Length=1,Units=km
! New line.CAB207 bus1=b1.1.2.3.0,bus2=b2.1.2.3.0,phases=3,BaseFreq=60,Rho=2840,Geometry=CAB207,EarthModel=Carson,Length=1,Units=km
! New line.CAB208 bus1=b1.1.2.3.0,bus2=b2.1.2.3.0,phases=3,BaseFreq=60,Rho=2840,Geometry=CAB208,EarthModel=Carson,Length=1,Units=km
! New line.CABA06 bus1=b1.1.2.3.0,bus2=b2.1.2.3.0,phases=3,BaseFreq=60,Rho=2840,Geometry=CABA06,EarthModel=Carson,Length=1,Units=km
! New line.CABA08 bus1=b1.1.2.3.0,bus2=b2.1.2.3.0,phases=3,BaseFreq=60,Rho=2840,Geometry=CABA08,EarthModel=Carson,Length=1,Units=km
! New line.CABBT106 bus1=b1.1.2.3.0,bus2=b2.1.2.3.0,phases=3,BaseFreq=60,Rho=2840,Geometry=CABBT106,EarthModel=Carson,Length=1,Units=km
! New line.CABBT107 bus1=b1.1.2.3.0,bus2=b2.1.2.3.0,phases=3,BaseFreq=60,Rho=2840,Geometry=CABBT107,EarthModel=Carson,Length=1,Units=km
! New line.CABBT108 bus1=b1.1.2.3.0,bus2=b2.1.2.3.0,phases=3,BaseFreq=60,Rho=2840,Geometry=CABBT108,EarthModel=Carson,Length=1,Units=km
! New line.CABBT803 bus1=b1.1.2.3.0,bus2=b2.1.2.3.0,phases=3,BaseFreq=60,Rho=2840,Geometry=CABBT803,EarthModel=Carson,Length=1,Units=km
! New line.CABBT805 bus1=b1.1.2.3.0,bus2=b2.1.2.3.0,phases=3,BaseFreq=60,Rho=2840,Geometry=CABBT805,EarthModel=Carson,Length=1,Units=km
! New line.CABBT809 bus1=b1.1.2.3.0,bus2=b2.1.2.3.0,phases=3,BaseFreq=60,Rho=2840,Geometry=CABBT809,EarthModel=Carson,Length=1,Units=km
! New line.CABBT810 bus1=b1.1.2.3.0,bus2=b2.1.2.3.0,phases=3,BaseFreq=60,Rho=2840,Geometry=CABBT810,EarthModel=Carson,Length=1,Units=km
! New line.CABBT801 bus1=b1.1.2.3.0,bus2=b2.1.2.3.0,phases=3,BaseFreq=60,Rho=2840,Geometry=CABBT801,EarthModel=Carson,Length=1,Units=km
! New line.CABBT807 bus1=b1.1.2.3.0,bus2=b2.1.2.3.0,phases=3,BaseFreq=60,Rho=2840,Geometry=CABBT807,EarthModel=Carson,Length=1,Units=km
! New line.CABBT808 bus1=b1.1.2.3.0,bus2=b2.1.2.3.0,phases=3,BaseFreq=60,Rho=2840,Geometry=CABBT808,EarthModel=Carson,Length=1,Units=km

! versao 2021
new linecode.BT001_BT001_7_2_1 nPhases=2,r1=3.754,x1=0.4211,r0=1.107,x0=1.379,units=km,normamps=33
new linecode.BT001_BT001_7_3_1 nPhases=3,r1=3.754,x1=0.4211,r0=1.107,x0=1.379,units=km,normamps=33
new linecode.BT001_BT101_7_2_1 nPhases=2,r1=3.754,x1=0.4211,r0=1.107,x0=1.379,units=km,normamps=33
new linecode.BT001_BT108_7_2_1 nPhases=2,r1=3.754,x1=0.4211,r0=1.107,x0=1.379,units=km,normamps=33
new linecode.BT001_BT108_7_3_1 nPhases=3,r1=3.754,x1=0.4211,r0=1.107,x0=1.379,units=km,normamps=33
new linecode.BT001_BT501_7_2_1 nPhases=2,r1=3.754,x1=0.4211,r0=1.107,x0=1.379,units=km,normamps=33
new linecode.BT002_BT001_7_2_1 nPhases=2,r1=1.138,x1=0.3983,r0=1.047,x0=1.304,units=km,normamps=70
new linecode.BT002_BT002_7_2_1 nPhases=2,r1=1.138,x1=0.3983,r0=1.047,x0=1.304,units=km,normamps=70
new linecode.BT002_BT002_7_3_1 nPhases=3,r1=1.138,x1=0.3983,r0=1.047,x0=1.304,units=km,normamps=70
new linecode.BT003_BT003_7_2_1 nPhases=2,r1=2.389,x1=0.524,r0=0.986,x0=1.228,units=km,normamps=76
new linecode.BT004_BT004_7_2_1 nPhases=2,r1=0.78,x1=0.3791,r0=0.996,x0=1.241,units=km,normamps=93
new linecode.BT004_BT004_7_3_1 nPhases=3,r1=0.78,x1=0.3791,r0=0.996,x0=1.241,units=km,normamps=93
new linecode.BT004_BT007_7_3_1 nPhases=3,r1=0.78,x1=0.3791,r0=0.996,x0=1.241,units=km,normamps=93
new linecode.BT005_BT003_7_2_1 nPhases=2,r1=1.564,x1=1.27,r0=0.932,x0=1.161,units=km,normamps=101
new linecode.BT005_BT003_7_3_1 nPhases=3,r1=1.564,x1=1.27,r0=0.932,x0=1.161,units=km,normamps=101
new linecode.BT005_BT005_7_1_1 nPhases=1,r1=1.564,x1=1.27,r0=0.932,x0=1.161,units=km,normamps=101
new linecode.BT005_BT005_7_2_1 nPhases=2,r1=1.564,x1=1.27,r0=0.932,x0=1.161,units=km,normamps=101
new linecode.BT005_BT005_7_3_1 nPhases=3,r1=1.564,x1=1.27,r0=0.932,x0=1.161,units=km,normamps=101
new linecode.BT005_BT006_7_2_1 nPhases=2,r1=1.564,x1=1.27,r0=0.932,x0=1.161,units=km,normamps=101
new linecode.BT005_BT006_7_3_1 nPhases=3,r1=1.564,x1=1.27,r0=0.932,x0=1.161,units=km,normamps=101
new linecode.BT005_BT007_7_2_1 nPhases=2,r1=1.564,x1=1.27,r0=0.932,x0=1.161,units=km,normamps=101
new linecode.BT005_BT007_7_3_1 nPhases=3,r1=1.564,x1=1.27,r0=0.932,x0=1.161,units=km,normamps=101
new linecode.BT005_BT008_7_2_1 nPhases=2,r1=1.564,x1=1.27,r0=0.932,x0=1.161,units=km,normamps=101
new linecode.BT005_BT008_7_3_1 nPhases=3,r1=1.564,x1=1.27,r0=0.932,x0=1.161,units=km,normamps=101
new linecode.BT005_BT011_7_2_1 nPhases=2,r1=1.564,x1=1.27,r0=0.932,x0=1.161,units=km,normamps=101
new linecode.BT005_BT103_7_2_1 nPhases=2,r1=1.564,x1=1.27,r0=0.932,x0=1.161,units=km,normamps=101
new linecode.BT005_BT103_7_3_1 nPhases=3,r1=1.564,x1=1.27,r0=0.932,x0=1.161,units=km,normamps=101
new linecode.BT005_BT106_7_3_1 nPhases=3,r1=1.564,x1=1.27,r0=0.932,x0=1.161,units=km,normamps=101
new linecode.BT005_BT107_7_2_1 nPhases=2,r1=1.564,x1=1.27,r0=0.932,x0=1.161,units=km,normamps=101
new linecode.BT005_BT107_7_3_1 nPhases=3,r1=1.564,x1=1.27,r0=0.932,x0=1.161,units=km,normamps=101
new linecode.BT005_BT108_7_2_1 nPhases=2,r1=1.564,x1=1.27,r0=0.932,x0=1.161,units=km,normamps=101
new linecode.BT005_BT108_7_3_1 nPhases=3,r1=1.564,x1=1.27,r0=0.932,x0=1.161,units=km,normamps=101
new linecode.BT005_BT111_7_2_1 nPhases=2,r1=1.564,x1=1.27,r0=0.932,x0=1.161,units=km,normamps=101
new linecode.BT005_BT111_7_3_1 nPhases=3,r1=1.564,x1=1.27,r0=0.932,x0=1.161,units=km,normamps=101
new linecode.BT005_BT305_7_2_1 nPhases=2,r1=1.564,x1=1.27,r0=0.932,x0=1.161,units=km,normamps=101
new linecode.BT005_BT305_7_3_1 nPhases=3,r1=1.564,x1=1.27,r0=0.932,x0=1.161,units=km,normamps=101
new linecode.BT005_BT507_7_3_1 nPhases=3,r1=1.564,x1=1.27,r0=0.932,x0=1.161,units=km,normamps=101
new linecode.BT006_BT002_7_3_1 nPhases=3,r1=0.984,x1=0.8,r0=0.955,x0=1.19,units=km,normamps=136
new linecode.BT006_BT005_7_2_1 nPhases=2,r1=0.984,x1=0.8,r0=0.955,x0=1.19,units=km,normamps=136
new linecode.BT006_BT005_7_3_1 nPhases=3,r1=0.984,x1=0.8,r0=0.955,x0=1.19,units=km,normamps=136
new linecode.BT006_BT006_7_1_1 nPhases=1,r1=0.984,x1=0.8,r0=0.955,x0=1.19,units=km,normamps=136
new linecode.BT006_BT006_7_2_1 nPhases=2,r1=0.984,x1=0.8,r0=0.955,x0=1.19,units=km,normamps=136
new linecode.BT006_BT006_7_3_1 nPhases=3,r1=0.984,x1=0.8,r0=0.955,x0=1.19,units=km,normamps=136
new linecode.BT006_BT007_7_3_1 nPhases=3,r1=0.984,x1=0.8,r0=0.955,x0=1.19,units=km,normamps=136
new linecode.BT006_BT103_7_3_1 nPhases=3,r1=0.984,x1=0.8,r0=0.955,x0=1.19,units=km,normamps=136
new linecode.BT006_BT107_7_3_1 nPhases=3,r1=0.984,x1=0.8,r0=0.955,x0=1.19,units=km,normamps=136
new linecode.BT006_BT206_7_1_1 nPhases=1,r1=0.984,x1=0.8,r0=0.955,x0=1.19,units=km,normamps=136
new linecode.BT007_BT002_7_2_1 nPhases=2,r1=0.62,x1=1.5,r0=0.909,x0=1.133,units=km,normamps=194
new linecode.BT007_BT002_7_3_1 nPhases=3,r1=0.62,x1=1.5,r0=0.909,x0=1.133,units=km,normamps=194
new linecode.BT007_BT003_7_2_1 nPhases=2,r1=0.62,x1=1.5,r0=0.909,x0=1.133,units=km,normamps=194
new linecode.BT007_BT005_7_2_1 nPhases=2,r1=0.62,x1=1.5,r0=0.909,x0=1.133,units=km,normamps=194
new linecode.BT007_BT005_7_3_1 nPhases=3,r1=0.62,x1=1.5,r0=0.909,x0=1.133,units=km,normamps=194
new linecode.BT007_BT006_7_2_1 nPhases=2,r1=0.62,x1=1.5,r0=0.909,x0=1.133,units=km,normamps=194
new linecode.BT007_BT006_7_3_1 nPhases=3,r1=0.62,x1=1.5,r0=0.909,x0=1.133,units=km,normamps=194
new linecode.BT007_BT007_7_2_1 nPhases=2,r1=0.62,x1=1.5,r0=0.909,x0=1.133,units=km,normamps=194
new linecode.BT007_BT007_7_3_1 nPhases=3,r1=0.62,x1=1.5,r0=0.909,x0=1.133,units=km,normamps=194
new linecode.BT007_BT008_7_2_1 nPhases=2,r1=0.62,x1=1.5,r0=0.909,x0=1.133,units=km,normamps=194
new linecode.BT007_BT008_7_3_1 nPhases=3,r1=0.62,x1=1.5,r0=0.909,x0=1.133,units=km,normamps=194
new linecode.BT007_BT011_7_3_1 nPhases=3,r1=0.62,x1=1.5,r0=0.909,x0=1.133,units=km,normamps=194
new linecode.BT007_BT103_7_3_1 nPhases=3,r1=0.62,x1=1.5,r0=0.909,x0=1.133,units=km,normamps=194
new linecode.BT007_BT106_7_3_1 nPhases=3,r1=0.62,x1=1.5,r0=0.909,x0=1.133,units=km,normamps=194
new linecode.BT007_BT107_7_2_1 nPhases=2,r1=0.62,x1=1.5,r0=0.909,x0=1.133,units=km,normamps=194
new linecode.BT007_BT107_7_3_1 nPhases=3,r1=0.62,x1=1.5,r0=0.909,x0=1.133,units=km,normamps=194
new linecode.BT007_BT108_7_2_1 nPhases=2,r1=0.62,x1=1.5,r0=0.909,x0=1.133,units=km,normamps=194
new linecode.BT007_BT108_7_3_1 nPhases=3,r1=0.62,x1=1.5,r0=0.909,x0=1.133,units=km,normamps=194
new linecode.BT007_BT111_7_3_1 nPhases=3,r1=0.62,x1=1.5,r0=0.909,x0=1.133,units=km,normamps=194
new linecode.BT007_BT206_7_2_1 nPhases=2,r1=0.62,x1=1.5,r0=0.909,x0=1.133,units=km,normamps=194
new linecode.BT007_BT206_7_3_1 nPhases=3,r1=0.62,x1=1.5,r0=0.909,x0=1.133,units=km,normamps=194
new linecode.BT007_BT305_7_2_1 nPhases=2,r1=0.62,x1=1.5,r0=0.909,x0=1.133,units=km,normamps=194
new linecode.BT007_BT307_7_3_1 nPhases=3,r1=0.62,x1=1.5,r0=0.909,x0=1.133,units=km,normamps=194
new linecode.BT007_BT507_7_3_1 nPhases=3,r1=0.62,x1=1.5,r0=0.909,x0=1.133,units=km,normamps=194
new linecode.BT007_BT808_7_2_1 nPhases=2,r1=0.62,x1=1.5,r0=0.909,x0=1.133,units=km,normamps=194
new linecode.BT008_BT005_7_3_1 nPhases=3,r1=0.389,x1=0.45,r0=0.853,x0=1.062,units=km,normamps=252
new linecode.BT008_BT006_7_3_1 nPhases=3,r1=0.389,x1=0.45,r0=0.853,x0=1.062,units=km,normamps=252
new linecode.BT008_BT007_7_2_1 nPhases=2,r1=0.389,x1=0.45,r0=0.853,x0=1.062,units=km,normamps=252
new linecode.BT008_BT007_7_3_1 nPhases=3,r1=0.389,x1=0.45,r0=0.853,x0=1.062,units=km,normamps=252
new linecode.BT008_BT008_7_2_1 nPhases=2,r1=0.389,x1=0.45,r0=0.853,x0=1.062,units=km,normamps=252
new linecode.BT008_BT008_7_3_1 nPhases=3,r1=0.389,x1=0.45,r0=0.853,x0=1.062,units=km,normamps=252
new linecode.BT008_BT108_7_3_1 nPhases=3,r1=0.389,x1=0.45,r0=0.853,x0=1.062,units=km,normamps=252
new linecode.BT008_BT308_7_2_1 nPhases=2,r1=0.389,x1=0.45,r0=0.853,x0=1.062,units=km,normamps=252
new linecode.BT009_BT005_7_2_1 nPhases=2,r1=0.308,x1=0.441,r0=0.829,x0=1.033,units=km,normamps=293
new linecode.BT009_BT007_7_3_1 nPhases=3,r1=0.308,x1=0.441,r0=0.829,x0=1.033,units=km,normamps=293
new linecode.BT009_BT008_7_3_1 nPhases=3,r1=0.308,x1=0.441,r0=0.829,x0=1.033,units=km,normamps=293
new linecode.BT009_BT009_7_2_1 nPhases=2,r1=0.308,x1=0.441,r0=0.829,x0=1.033,units=km,normamps=293
new linecode.BT009_BT009_7_3_1 nPhases=3,r1=0.308,x1=0.441,r0=0.829,x0=1.033,units=km,normamps=293
new linecode.BT010_BT007_7_3_1 nPhases=3,r1=0.245,x1=0.197,r0=0.786,x0=0.979,units=km,normamps=338
new linecode.BT011_BT005_7_3_1 nPhases=3,r1=0.195,x1=0.158,r0=0.783,x0=0.975,units=km,normamps=394
new linecode.BT011_BT007_7_3_1 nPhases=3,r1=0.195,x1=0.158,r0=0.783,x0=0.975,units=km,normamps=394
new linecode.BT011_BT008_7_3_1 nPhases=3,r1=0.195,x1=0.158,r0=0.783,x0=0.975,units=km,normamps=394
new linecode.BT011_BT011_7_3_1 nPhases=3,r1=0.195,x1=0.158,r0=0.783,x0=0.975,units=km,normamps=394
new linecode.BT012_BT012_7_3_1 nPhases=3,r1=0.137,x1=0.2763,r0=0.726,x0=0.905,units=km,normamps=496
new linecode.BT101_BT101_7_1_1 nPhases=1,r1=6.0824,x1=0.4042,r0=8.613,x0=2.019,units=km,normamps=48
new linecode.BT101_BT101_7_2_1 nPhases=2,r1=6.0824,x1=0.4042,r0=8.613,x0=2.019,units=km,normamps=48
new linecode.BT101_BT101_7_3_1 nPhases=3,r1=6.0824,x1=0.4042,r0=8.613,x0=2.019,units=km,normamps=48
new linecode.BT101_BT107_7_2_1 nPhases=2,r1=6.0824,x1=0.4042,r0=8.613,x0=2.019,units=km,normamps=48
new linecode.BT101_BT107_7_3_1 nPhases=3,r1=6.0824,x1=0.4042,r0=8.613,x0=2.019,units=km,normamps=48
new linecode.BT101_BT108_7_3_1 nPhases=3,r1=6.0824,x1=0.4042,r0=8.613,x0=2.019,units=km,normamps=48
new linecode.BT101_BT507_7_3_1 nPhases=3,r1=6.0824,x1=0.4042,r0=8.613,x0=2.019,units=km,normamps=48
new linecode.BT101_BT519_7_2_1 nPhases=2,r1=6.0824,x1=0.4042,r0=8.613,x0=2.019,units=km,normamps=48
new linecode.BT102_BT102_7_2_1 nPhases=2,r1=3.8389,x1=0.3983,r0=5.406,x0=1.925,units=km,normamps=64
new linecode.BT102_BT102_7_3_1 nPhases=3,r1=3.8389,x1=0.3983,r0=5.406,x0=1.925,units=km,normamps=64
new linecode.BT102_BT107_7_3_1 nPhases=3,r1=3.8389,x1=0.3983,r0=5.406,x0=1.925,units=km,normamps=64
new linecode.BT102_BT206_7_2_1 nPhases=2,r1=3.8389,x1=0.3983,r0=5.406,x0=1.925,units=km,normamps=64
new linecode.BT103_BT005_7_2_1 nPhases=2,r1=2.469,x1=2.176,r0=3.555,x0=1.92,units=km,normamps=81
new linecode.BT103_BT005_7_3_1 nPhases=3,r1=2.469,x1=2.176,r0=3.555,x0=1.92,units=km,normamps=81
new linecode.BT103_BT007_7_3_1 nPhases=3,r1=2.469,x1=2.176,r0=3.555,x0=1.92,units=km,normamps=81
new linecode.BT103_BT103_7_1_1 nPhases=1,r1=2.469,x1=2.176,r0=3.555,x0=1.92,units=km,normamps=81
new linecode.BT103_BT103_7_2_1 nPhases=2,r1=2.469,x1=2.176,r0=3.555,x0=1.92,units=km,normamps=81
new linecode.BT103_BT103_7_3_1 nPhases=3,r1=2.469,x1=2.176,r0=3.555,x0=1.92,units=km,normamps=81
new linecode.BT103_BT106_7_1_1 nPhases=1,r1=2.469,x1=2.176,r0=3.555,x0=1.92,units=km,normamps=81
new linecode.BT103_BT106_7_2_1 nPhases=2,r1=2.469,x1=2.176,r0=3.555,x0=1.92,units=km,normamps=81
new linecode.BT103_BT107_7_1_1 nPhases=1,r1=2.469,x1=2.176,r0=3.555,x0=1.92,units=km,normamps=81
new linecode.BT103_BT107_7_2_1 nPhases=2,r1=2.469,x1=2.176,r0=3.555,x0=1.92,units=km,normamps=81
new linecode.BT103_BT107_7_3_1 nPhases=3,r1=2.469,x1=2.176,r0=3.555,x0=1.92,units=km,normamps=81
new linecode.BT103_BT108_7_2_1 nPhases=2,r1=2.469,x1=2.176,r0=3.555,x0=1.92,units=km,normamps=81
new linecode.BT103_BT108_7_3_1 nPhases=3,r1=2.469,x1=2.176,r0=3.555,x0=1.92,units=km,normamps=81
new linecode.BT103_BT111_7_2_1 nPhases=2,r1=2.469,x1=2.176,r0=3.555,x0=1.92,units=km,normamps=81
new linecode.BT103_BT204_7_3_1 nPhases=3,r1=2.469,x1=2.176,r0=3.555,x0=1.92,units=km,normamps=81
new linecode.BT103_BT305_7_3_1 nPhases=3,r1=2.469,x1=2.176,r0=3.555,x0=1.92,units=km,normamps=81
new linecode.BT103_BT307_7_3_1 nPhases=3,r1=2.469,x1=2.176,r0=3.555,x0=1.92,units=km,normamps=81
new linecode.BT103_BT504_7_3_1 nPhases=3,r1=2.469,x1=2.176,r0=3.555,x0=1.92,units=km,normamps=81
new linecode.BT104_BT103_7_3_1 nPhases=3,r1=1.908,x1=0.3791,r0=2.84,x0=2.057,units=km,normamps=82
new linecode.BT104_BT104_7_1_1 nPhases=1,r1=1.908,x1=0.3791,r0=2.84,x0=2.057,units=km,normamps=82
new linecode.BT104_BT104_7_2_1 nPhases=2,r1=1.908,x1=0.3791,r0=2.84,x0=2.057,units=km,normamps=82
new linecode.BT104_BT104_7_3_1 nPhases=3,r1=1.908,x1=0.3791,r0=2.84,x0=2.057,units=km,normamps=82
new linecode.BT104_BT107_7_1_1 nPhases=1,r1=1.908,x1=0.3791,r0=2.84,x0=2.057,units=km,normamps=82
new linecode.BT104_BT107_7_2_1 nPhases=2,r1=1.908,x1=0.3791,r0=2.84,x0=2.057,units=km,normamps=82
new linecode.BT104_BT107_7_3_1 nPhases=3,r1=1.908,x1=0.3791,r0=2.84,x0=2.057,units=km,normamps=82
new linecode.BT104_BT108_7_2_1 nPhases=2,r1=1.908,x1=0.3791,r0=2.84,x0=2.057,units=km,normamps=82
new linecode.BT104_BT503_7_2_1 nPhases=2,r1=1.908,x1=0.3791,r0=2.84,x0=2.057,units=km,normamps=82
new linecode.BT105_BT101_7_2_1 nPhases=2,r1=1.229,x1=0.3377,r0=1.977,x0=1.474,units=km,normamps=101
new linecode.BT105_BT104_7_3_1 nPhases=3,r1=1.229,x1=0.3377,r0=1.977,x0=1.474,units=km,normamps=101
new linecode.BT105_BT105_7_1_1 nPhases=1,r1=1.229,x1=0.3377,r0=1.977,x0=1.474,units=km,normamps=101
new linecode.BT105_BT105_7_2_1 nPhases=2,r1=1.229,x1=0.3377,r0=1.977,x0=1.474,units=km,normamps=101
new linecode.BT105_BT105_7_3_1 nPhases=3,r1=1.229,x1=0.3377,r0=1.977,x0=1.474,units=km,normamps=101
new linecode.BT105_BT106_7_2_1 nPhases=2,r1=1.229,x1=0.3377,r0=1.977,x0=1.474,units=km,normamps=101
new linecode.BT105_BT107_7_2_1 nPhases=2,r1=1.229,x1=0.3377,r0=1.977,x0=1.474,units=km,normamps=101
new linecode.BT105_BT107_7_3_1 nPhases=3,r1=1.229,x1=0.3377,r0=1.977,x0=1.474,units=km,normamps=101
new linecode.BT105_BT108_7_3_1 nPhases=3,r1=1.229,x1=0.3377,r0=1.977,x0=1.474,units=km,normamps=101
new linecode.BT105_BT307_7_3_1 nPhases=3,r1=1.229,x1=0.3377,r0=1.977,x0=1.474,units=km,normamps=101
new linecode.BT105_BT803_7_3_1 nPhases=3,r1=1.229,x1=0.3377,r0=1.977,x0=1.474,units=km,normamps=101
new linecode.BT105_BT810_7_3_1 nPhases=3,r1=1.229,x1=0.3377,r0=1.977,x0=1.474,units=km,normamps=101
new linecode.BT109_BT005_7_3_1 nPhases=3,r1=0.486,x1=0.427,r0=1.036,x0=1.18,units=km,normamps=230
new linecode.BT109_BT007_7_3_1 nPhases=3,r1=0.486,x1=0.427,r0=1.036,x0=1.18,units=km,normamps=230
new linecode.BT109_BT106_7_1_1 nPhases=1,r1=0.486,x1=0.427,r0=1.036,x0=1.18,units=km,normamps=230
new linecode.BT109_BT106_7_2_1 nPhases=2,r1=0.486,x1=0.427,r0=1.036,x0=1.18,units=km,normamps=230
new linecode.BT109_BT106_7_3_1 nPhases=3,r1=0.486,x1=0.427,r0=1.036,x0=1.18,units=km,normamps=230
new linecode.BT109_BT107_7_1_1 nPhases=1,r1=0.486,x1=0.427,r0=1.036,x0=1.18,units=km,normamps=230
new linecode.BT109_BT107_7_3_1 nPhases=3,r1=0.486,x1=0.427,r0=1.036,x0=1.18,units=km,normamps=230
new linecode.BT109_BT108_7_2_1 nPhases=2,r1=0.486,x1=0.427,r0=1.036,x0=1.18,units=km,normamps=230
new linecode.BT109_BT108_7_3_1 nPhases=3,r1=0.486,x1=0.427,r0=1.036,x0=1.18,units=km,normamps=230
new linecode.BT109_BT109_7_1_1 nPhases=1,r1=0.486,x1=0.427,r0=1.036,x0=1.18,units=km,normamps=230
new linecode.BT109_BT109_7_2_1 nPhases=2,r1=0.486,x1=0.427,r0=1.036,x0=1.18,units=km,normamps=230
new linecode.BT109_BT109_7_3_1 nPhases=3,r1=0.486,x1=0.427,r0=1.036,x0=1.18,units=km,normamps=230
new linecode.BT109_BT111_7_2_1 nPhases=2,r1=0.486,x1=0.427,r0=1.036,x0=1.18,units=km,normamps=230
new linecode.BT109_BT111_7_3_1 nPhases=3,r1=0.486,x1=0.427,r0=1.036,x0=1.18,units=km,normamps=230
new linecode.BT110_BT107_7_3_1 nPhases=3,r1=0.386,x1=0.338,r0=1.036,x0=1.459,units=km,normamps=270
new linecode.BT110_BT108_7_3_1 nPhases=3,r1=0.386,x1=0.338,r0=1.036,x0=1.459,units=km,normamps=270
new linecode.BT110_BT110_7_3_1 nPhases=3,r1=0.386,x1=0.338,r0=1.036,x0=1.459,units=km,normamps=270
new linecode.BT111_BT007_7_3_1 nPhases=3,r1=0.306,x1=0.268,r0=0.781,x0=1.023,units=km,normamps=314
new linecode.BT111_BT101_7_3_1 nPhases=3,r1=0.306,x1=0.268,r0=0.781,x0=1.023,units=km,normamps=314
new linecode.BT111_BT105_7_3_1 nPhases=3,r1=0.306,x1=0.268,r0=0.781,x0=1.023,units=km,normamps=314
new linecode.BT111_BT106_7_3_1 nPhases=3,r1=0.306,x1=0.268,r0=0.781,x0=1.023,units=km,normamps=314
new linecode.BT111_BT107_7_2_1 nPhases=2,r1=0.306,x1=0.268,r0=0.781,x0=1.023,units=km,normamps=314
new linecode.BT111_BT107_7_3_1 nPhases=3,r1=0.306,x1=0.268,r0=0.781,x0=1.023,units=km,normamps=314
new linecode.BT111_BT108_7_1_1 nPhases=1,r1=0.306,x1=0.268,r0=0.781,x0=1.023,units=km,normamps=314
new linecode.BT111_BT108_7_2_1 nPhases=2,r1=0.306,x1=0.268,r0=0.781,x0=1.023,units=km,normamps=314
new linecode.BT111_BT108_7_3_1 nPhases=3,r1=0.306,x1=0.268,r0=0.781,x0=1.023,units=km,normamps=314
new linecode.BT111_BT109_7_3_1 nPhases=3,r1=0.306,x1=0.268,r0=0.781,x0=1.023,units=km,normamps=314
new linecode.BT111_BT111_7_2_1 nPhases=2,r1=0.306,x1=0.268,r0=0.781,x0=1.023,units=km,normamps=314
new linecode.BT111_BT111_7_3_1 nPhases=3,r1=0.306,x1=0.268,r0=0.781,x0=1.023,units=km,normamps=314
new linecode.BT111_BT308_7_3_1 nPhases=3,r1=0.306,x1=0.268,r0=0.781,x0=1.023,units=km,normamps=314
new linecode.BT112_BT108_7_3_1 nPhases=3,r1=0.195,x1=0.1686,r0=0.532,x0=1.158,units=km,normamps=425
new linecode.BT112_BT111_7_3_1 nPhases=3,r1=0.195,x1=0.1686,r0=0.532,x0=1.158,units=km,normamps=425
new linecode.BT112_BT112_7_1_1 nPhases=1,r1=0.195,x1=0.1686,r0=0.532,x0=1.158,units=km,normamps=425
new linecode.BT112_BT112_7_2_1 nPhases=2,r1=0.195,x1=0.1686,r0=0.532,x0=1.158,units=km,normamps=425
new linecode.BT112_BT112_7_3_1 nPhases=3,r1=0.195,x1=0.1686,r0=0.532,x0=1.158,units=km,normamps=425
new linecode.BT201_BT201_7_2_1 nPhases=2,r1=6.094,x1=0.4042,r0=8.613,x0=2.019,units=km,normamps=25
new linecode.BT203_BT203_7_2_1 nPhases=2,r1=2.0095,x1=0.3622,r0=2.84,x0=2.057,units=km,normamps=82
new linecode.BT203_BT203_7_3_1 nPhases=3,r1=2.0095,x1=0.3622,r0=2.84,x0=2.057,units=km,normamps=82
new linecode.BT204_BT204_7_1_1 nPhases=1,r1=2.469,x1=2.176,r0=3.555,x0=1.92,units=km,normamps=84
new linecode.BT204_BT204_7_3_1 nPhases=3,r1=2.469,x1=2.176,r0=3.555,x0=1.92,units=km,normamps=84
new linecode.BT204_BT207_7_2_1 nPhases=2,r1=2.469,x1=2.176,r0=3.555,x0=1.92,units=km,normamps=84
new linecode.BT205_BT205_7_2_1 nPhases=2,r1=1.229,x1=0.3961,r0=2.126,x0=1.924,units=km,normamps=101
new linecode.BT205_BT205_7_3_1 nPhases=3,r1=1.229,x1=0.3961,r0=2.126,x0=1.924,units=km,normamps=101
new linecode.BT205_BT206_7_1_1 nPhases=1,r1=1.229,x1=0.3961,r0=2.126,x0=1.924,units=km,normamps=101
new linecode.BT205_BT206_7_2_1 nPhases=2,r1=1.229,x1=0.3961,r0=2.126,x0=1.924,units=km,normamps=101
new linecode.BT206_BT106_7_1_1 nPhases=1,r1=1.551,x1=1.361,r0=2.202,x0=1.984,units=km,normamps=112
new linecode.BT206_BT106_7_2_1 nPhases=2,r1=1.551,x1=1.361,r0=2.202,x0=1.984,units=km,normamps=112
new linecode.BT206_BT106_7_3_1 nPhases=3,r1=1.551,x1=1.361,r0=2.202,x0=1.984,units=km,normamps=112
new linecode.BT206_BT107_7_1_1 nPhases=1,r1=1.551,x1=1.361,r0=2.202,x0=1.984,units=km,normamps=112
new linecode.BT206_BT107_7_2_1 nPhases=2,r1=1.551,x1=1.361,r0=2.202,x0=1.984,units=km,normamps=112
new linecode.BT206_BT107_7_3_1 nPhases=3,r1=1.551,x1=1.361,r0=2.202,x0=1.984,units=km,normamps=112
new linecode.BT206_BT108_7_3_1 nPhases=3,r1=1.551,x1=1.361,r0=2.202,x0=1.984,units=km,normamps=112
new linecode.BT206_BT204_7_2_1 nPhases=2,r1=1.551,x1=1.361,r0=2.202,x0=1.984,units=km,normamps=112
new linecode.BT206_BT205_7_2_1 nPhases=2,r1=1.551,x1=1.361,r0=2.202,x0=1.984,units=km,normamps=112
new linecode.BT206_BT206_7_1_1 nPhases=1,r1=1.551,x1=1.361,r0=2.202,x0=1.984,units=km,normamps=112
new linecode.BT206_BT206_7_2_1 nPhases=2,r1=1.551,x1=1.361,r0=2.202,x0=1.984,units=km,normamps=112
new linecode.BT206_BT206_7_3_1 nPhases=3,r1=1.551,x1=1.361,r0=2.202,x0=1.984,units=km,normamps=112
new linecode.BT206_BT207_7_1_1 nPhases=1,r1=1.551,x1=1.361,r0=2.202,x0=1.984,units=km,normamps=112
...
